Version 4
SHEET 1 880 840
WIRE -368 160 -368 128
WIRE -240 160 -368 160
WIRE -176 160 -240 160
WIRE -96 160 -112 160
WIRE 0 160 -96 160
WIRE 80 160 0 160
WIRE 256 160 160 160
WIRE 288 160 256 160
WIRE 0 208 0 160
WIRE -368 256 -368 240
WIRE 64 288 48 288
WIRE -208 320 -288 320
WIRE 0 320 0 304
WIRE -368 400 -368 384
WIRE 176 416 144 416
WIRE 448 416 400 416
WIRE -80 432 -96 432
WIRE -208 480 -208 320
WIRE -160 480 -208 480
WIRE 176 480 96 480
WIRE 592 480 400 480
WIRE -208 496 -208 480
WIRE 592 496 592 480
WIRE 64 544 64 288
WIRE 176 544 64 544
WIRE 528 544 400 544
WIRE 176 608 144 608
WIRE 480 608 400 608
WIRE 96 704 96 480
WIRE 528 704 528 544
WIRE 528 704 96 704
WIRE 592 704 592 576
WIRE 592 704 528 704
WIRE -80 816 -80 432
WIRE 480 816 480 608
WIRE 480 816 -80 816
FLAG 288 160 vcc
FLAG 256 224 0
FLAG -96 304 0
FLAG -240 224 0
FLAG -368 480 0
FLAG -368 128 vout
FLAG 144 416 0
FLAG -96 352 vcc
FLAG -96 528 0
FLAG 592 400 vcc
FLAG 448 416 vcc
FLAG 144 608 vcc
FLAG 0 320 0
FLAG 496 192 0
FLAG 496 112 vcc
FLAG -544 128 vout
FLAG -544 208 0
FLAG 528 768 0
SYMBOL ind 64 176 R270
WINDOW 0 32 56 VTop 2
WINDOW 3 5 56 VBottom 2
SYMATTR InstName L1
SYMATTR Value 10µ
SYMBOL cap 240 160 R0
SYMATTR InstName C1
SYMATTR Value 330µ
SYMBOL nmos 48 208 M0
SYMATTR InstName M1
SYMATTR Value IPB600N25N3
SYMBOL diode -112 144 R90
WINDOW 0 0 32 VBottom 2
WINDOW 3 32 32 VTop 2
SYMATTR InstName D1
SYMATTR Value 1N4148
SYMBOL res -112 144 R0
SYMATTR InstName R1
SYMATTR Value 2k2
SYMBOL cap -112 240 R0
SYMATTR InstName C2
SYMATTR Value 100p
SYMBOL cap -256 160 R0
SYMATTR InstName C3
SYMATTR Value 2µ2
SYMBOL res -384 144 R0
SYMATTR InstName R2
SYMATTR Value 220k
SYMBOL Potentiometer -368 320 R0
SYMATTR InstName U1
SYMATTR SpiceLine RES=1K POS=0.9
SYMBOL res -384 384 R0
SYMATTR InstName R3
SYMATTR Value 470
SYMBOL npn -160 432 R0
SYMATTR InstName Q1
SYMATTR Value BC547C
SYMBOL Misc\\NE555 288 512 R0
SYMATTR InstName U2
SYMBOL res -112 336 R0
SYMATTR InstName R4
SYMATTR Value 56k
SYMBOL res 576 384 R0
SYMATTR InstName R5
SYMATTR Value 1k
SYMBOL res 576 480 R0
SYMATTR InstName R6
SYMATTR Value 10k
SYMBOL voltage 496 96 R0
WINDOW 123 0 0 Left 2
WINDOW 39 24 124 Left 2
SYMATTR InstName V1
SYMATTR Value 9
SYMATTR SpiceLine Rser=0.1
SYMBOL res -560 112 R0
SYMATTR InstName R7
SYMATTR Value 20k
SYMBOL cap 512 704 R0
SYMATTR InstName C4
SYMATTR Value 2n2
TEXT -410 822 Left 2 !.tran 100m
